Version 4
SHEET 1 2712 680
WIRE 704 -496 672 -496
WIRE 784 -496 768 -496
WIRE 912 -496 864 -496
WIRE -816 -432 -896 -432
WIRE -672 -432 -736 -432
WIRE -528 -432 -672 -432
WIRE -256 -432 -528 -432
WIRE -64 -432 -256 -432
WIRE 32 -432 -64 -432
WIRE 128 -432 32 -432
WIRE 240 -432 208 -432
WIRE 400 -432 320 -432
WIRE -896 -416 -896 -432
WIRE -672 -416 -672 -432
WIRE -528 -400 -528 -432
WIRE -256 -400 -256 -432
WIRE -64 -384 -64 -432
WIRE 400 -384 400 -432
WIRE 544 -384 448 -384
WIRE 672 -384 672 -496
WIRE 672 -384 624 -384
WIRE 752 -384 672 -384
WIRE 912 -384 912 -496
WIRE 912 -384 816 -384
WIRE 1072 -384 912 -384
WIRE 1408 -384 1072 -384
WIRE 1584 -384 1408 -384
WIRE 32 -368 32 -432
WIRE 1584 -352 1584 -384
WIRE 1072 -336 1072 -384
WIRE -896 -320 -896 -336
WIRE -528 -320 -528 -336
WIRE 1408 -320 1408 -384
WIRE -672 -304 -672 -336
WIRE -368 -272 -400 -272
WIRE -256 -272 -256 -320
WIRE -256 -272 -304 -272
WIRE 448 -272 448 -304
WIRE -64 -256 -64 -304
WIRE 32 -256 32 -304
WIRE 32 -256 -64 -256
WIRE 160 -256 32 -256
WIRE 400 -256 400 -304
WIRE 400 -256 224 -256
WIRE 1584 -256 1584 -272
WIRE -672 -224 -672 -240
WIRE 400 -224 400 -256
WIRE 656 -224 400 -224
WIRE 400 -208 400 -224
WIRE 1408 -208 1408 -256
WIRE -256 -176 -256 -272
WIRE 352 -176 304 -176
WIRE 304 -160 304 -176
WIRE 656 -160 656 -224
WIRE 1072 -160 1072 -256
WIRE 1312 -160 1072 -160
WIRE 144 -128 -128 -128
WIRE 352 -128 224 -128
WIRE 1072 -128 1072 -160
WIRE -672 -64 -800 -64
WIRE -384 -64 -672 -64
WIRE 0 -64 -128 -64
WIRE 192 -64 80 -64
WIRE 256 -64 192 -64
WIRE 400 -64 400 -112
WIRE 400 -64 336 -64
WIRE 400 -48 400 -64
WIRE 656 -48 656 -96
WIRE 1312 -48 1312 -160
WIRE 192 -32 192 -64
WIRE 1072 -16 1072 -48
WIRE 1072 -16 912 -16
WIRE -672 0 -672 -64
WIRE -96 0 -128 0
WIRE -800 16 -800 -64
WIRE 1072 16 1072 -16
WIRE 192 48 192 32
WIRE 400 48 400 32
WIRE 656 48 656 32
WIRE -1040 64 -1136 64
WIRE -864 64 -960 64
WIRE -256 64 -256 48
WIRE -96 80 -96 0
WIRE 912 80 912 -16
WIRE 912 80 -96 80
WIRE -672 96 -672 80
WIRE 1072 128 1072 96
WIRE 1312 128 1312 32
WIRE 1312 128 1072 128
WIRE -1136 160 -1136 64
WIRE -800 176 -800 112
WIRE -672 176 -672 160
WIRE 1072 176 1072 128
WIRE 1184 176 1072 176
WIRE 1072 208 1072 176
WIRE 1184 208 1184 176
WIRE -1136 256 -1136 240
WIRE 1072 320 1072 288
WIRE 1184 320 1184 288
FLAG -256 64 0
FLAG 400 48 0
FLAG -896 -320 0
FLAG 448 -272 0
FLAG -672 176 0
FLAG 1072 320 0
FLAG -400 -272 0
FLAG -896 -432 IN
FLAG 1408 -208 0
FLAG 1584 -256 0
FLAG 656 48 0
FLAG 192 48 0
FLAG 1184 320 0
FLAG 304 -160 0
FLAG -672 -224 0
FLAG -528 -320 0
FLAG -800 176 0
FLAG -1136 256 0
SYMBOL PowerProducts\\LTC3803 -256 -64 R0
SYMATTR InstName U1
SYMBOL ind2 384 -400 R0
WINDOW 0 -5 33 Right 2
WINDOW 3 -2 77 Right 2
SYMATTR InstName L1
SYMATTR Value 16.7µ
SYMATTR Type ind
SYMATTR SpiceLine Cpar=1p
SYMBOL ind2 464 -288 R180
WINDOW 0 -3 80 Right 2
WINDOW 3 -3 37 Right 2
SYMATTR InstName L2
SYMATTR Value 150µ
SYMATTR Type ind
SYMATTR SpiceLine Cpar=2p
SYMBOL res 384 -64 R0
SYMATTR InstName R7
SYMATTR Value 0.033
SYMBOL res -272 -416 R0
SYMATTR InstName R8
SYMATTR Value 470
SYMBOL diode 752 -368 R270
WINDOW 0 32 32 VTop 2
WINDOW 3 0 32 VBottom 2
SYMATTR InstName D3
SYMATTR Value RFN2LAM6S
SYMBOL res 1056 -240 M180
WINDOW 0 36 76 Left 2
WINDOW 3 36 40 Left 2
SYMATTR InstName R9
SYMATTR Value 680K
SYMBOL res 1056 304 M180
WINDOW 0 36 76 Left 2
WINDOW 3 36 40 Left 2
SYMATTR InstName R10
SYMATTR Value 4.7K
SYMBOL cap -304 -288 R90
WINDOW 0 0 32 VBottom 2
WINDOW 3 58 54 VTop 2
WINDOW 39 63 37 VBottom 2
SYMATTR InstName C9
SYMATTR Value 1µ
SYMATTR SpiceLine IC=9
SYMBOL res -688 -16 R0
SYMATTR InstName R11
SYMATTR Value 47K
SYMBOL cap -688 96 R0
SYMATTR InstName C10
SYMATTR Value 1n
SYMBOL voltage -896 -432 R0
WINDOW 123 0 0 Left 2
WINDOW 39 0 0 Left 2
SYMATTR InstName V2
SYMATTR Value 14
SYMBOL cap 1392 -320 R0
WINDOW 3 28 85 Left 2
WINDOW 39 28 113 Left 2
SYMATTR Value 400n
SYMATTR InstName C8
SYMBOL current 1584 -352 R0
WINDOW 123 0 0 Left 0
WINDOW 39 0 0 Left 0
SYMATTR InstName I2
SYMATTR Value PULSE(20m 40m 2m 0.01m 0.01m 2m)
SYMBOL ind 224 -416 R270
WINDOW 0 32 56 VTop 2
WINDOW 3 5 56 VBottom 2
SYMATTR InstName L3
SYMATTR Value 0.22µ
SYMBOL res 224 -448 R90
WINDOW 0 0 56 VBottom 2
WINDOW 3 32 56 VTop 2
SYMATTR InstName R1
SYMATTR Value 0.023
SYMBOL res 640 -400 R90
WINDOW 0 0 56 VBottom 2
WINDOW 3 32 56 VTop 2
SYMATTR InstName R2
SYMATTR Value 0.357
SYMBOL res 640 -64 R0
SYMATTR InstName R3
SYMATTR Value 100
SYMBOL cap 640 -160 R0
SYMATTR InstName C1
SYMATTR Value 1n
SYMBOL cap 768 -512 R90
WINDOW 0 0 32 VBottom 2
WINDOW 3 32 32 VTop 2
SYMATTR InstName C2
SYMATTR Value 1n
SYMBOL res 880 -512 R90
WINDOW 0 0 56 VBottom 2
WINDOW 3 32 56 VTop 2
SYMATTR InstName R4
SYMATTR Value 4.7k
SYMBOL res 240 -144 R90
WINDOW 0 0 56 VBottom 2
WINDOW 3 32 56 VTop 2
SYMATTR InstName R6
SYMATTR Value 10
SYMBOL res 352 -80 R90
WINDOW 0 0 56 VBottom 2
WINDOW 3 32 56 VTop 2
SYMATTR InstName R12
SYMATTR Value 470
SYMBOL cap 176 -32 R0
SYMATTR InstName C4
SYMATTR Value 1n
SYMBOL res 96 -80 R90
WINDOW 0 0 56 VBottom 2
WINDOW 3 32 56 VTop 2
SYMATTR InstName R13
SYMATTR Value 4.7k
SYMBOL res 1168 192 R0
SYMATTR InstName R14
SYMATTR Value 4.7k
SYMBOL res 1056 112 M180
WINDOW 0 36 76 Left 2
WINDOW 3 36 40 Left 2
SYMATTR InstName R5
SYMATTR Value {POT * D}
SYMBOL res 1056 -32 M180
WINDOW 0 36 76 Left 2
WINDOW 3 36 40 Left 2
SYMATTR InstName R15
SYMATTR Value {POT * (1-D)}
SYMBOL res 1296 -64 R0
SYMATTR InstName R16
SYMATTR Value 4.7k
SYMBOL nmos 352 -208 R0
WINDOW 0 46 29 Left 2
SYMATTR InstName Q2
SYMATTR Value BSC320N20NS3
SYMBOL res -80 -400 R0
SYMATTR InstName R17
SYMATTR Value 4.7k
SYMBOL cap 16 -368 R0
SYMATTR InstName C3
SYMATTR Value 1n
SYMBOL diode 224 -272 R90
WINDOW 0 0 32 VBottom 2
WINDOW 3 32 32 VTop 2
SYMATTR InstName D1
SYMATTR Value RFN2LAM6S
SYMBOL cap -688 -304 R0
SYMATTR InstName C5
SYMATTR Value 47µ
SYMBOL res -720 -448 R90
WINDOW 0 0 56 VBottom 2
WINDOW 3 32 56 VTop 2
SYMATTR InstName R18
SYMATTR Value 2.5
SYMBOL cap -544 -400 R0
SYMATTR InstName C6
SYMATTR Value 400n
SYMBOL res -688 -432 R0
SYMATTR InstName R19
SYMATTR Value 0.1
SYMBOL res -1056 80 R270
WINDOW 0 32 56 VTop 2
WINDOW 3 0 56 VBottom 2
SYMATTR InstName R20
SYMATTR Value 4.7k
SYMBOL voltage -1136 144 R0
WINDOW 123 0 0 Left 2
WINDOW 39 0 0 Left 2
SYMATTR InstName V1
SYMATTR Value PULSE(0 3 1m 0 0 2m)
SYMBOL pnp -864 112 M180
SYMATTR InstName Q1
SYMATTR Value 2N3906
TEXT -576 280 Left 2 !.tran 0 4.51m 0.5m 100n startup
TEXT 424 -456 Bottom 2 !K1 L1 L2 1
TEXT -576 168 Left 2 !.param POT=56k
TEXT -576 192 Left 2 !.param D=0.2
TEXT -576 216 Left 2 ;.step param D list 0.01 0.5 0.99
TEXT -576 240 Left 2 !.model MYSW SW(Ron=0.01 Roff=1Meg Vt=.5 Vh=-.4)
