Version 4
SHEET 1 1776 680
WIRE 592 -640 576 -640
WIRE 704 -640 672 -640
WIRE 816 -640 768 -640
WIRE -464 -544 -576 -544
WIRE -416 -544 -464 -544
WIRE -304 -544 -336 -544
WIRE -160 -544 -304 -544
WIRE -16 -544 -160 -544
WIRE 80 -544 -16 -544
WIRE 336 -544 80 -544
WIRE 512 -544 464 -544
WIRE 576 -544 576 -640
WIRE 672 -544 576 -544
WIRE 816 -544 816 -640
WIRE 816 -544 736 -544
WIRE 928 -544 816 -544
WIRE 1040 -544 928 -544
WIRE 1248 -544 1040 -544
WIRE 1440 -544 1248 -544
WIRE -576 -512 -576 -544
WIRE -16 -512 -16 -544
WIRE 80 -512 80 -544
WIRE 512 -512 512 -544
WIRE 928 -512 928 -544
WIRE 1440 -512 1440 -544
WIRE -160 -496 -160 -544
WIRE 1040 -496 1040 -544
WIRE 1248 -496 1248 -544
WIRE 336 -448 288 -448
WIRE 512 -448 464 -448
WIRE -576 -416 -576 -432
WIRE 512 -416 512 -448
WIRE 512 -416 464 -416
WIRE 1440 -416 1440 -432
WIRE -160 -384 -160 -432
WIRE -16 -384 -16 -448
WIRE 80 -384 80 -432
WIRE 80 -384 -16 -384
WIRE 160 -384 80 -384
WIRE 288 -384 288 -448
WIRE 288 -384 224 -384
WIRE 928 -384 928 -432
WIRE 928 -384 816 -384
WIRE 1040 -384 1040 -432
WIRE 1248 -384 1248 -432
WIRE 928 -368 928 -384
WIRE 576 -320 576 -544
WIRE 576 -320 464 -320
WIRE 288 -272 288 -384
WIRE 288 -272 -144 -272
WIRE 928 -272 928 -288
WIRE -144 -208 -144 -272
WIRE -96 -208 -144 -208
WIRE 288 -208 288 -272
WIRE 288 -208 240 -208
WIRE 464 -144 464 -208
WIRE -304 -128 -304 -544
WIRE -96 -128 -304 -128
WIRE 336 -128 240 -128
WIRE 336 -80 336 -128
WIRE -464 -48 -464 -544
WIRE -96 -48 -464 -48
WIRE 336 -48 240 -48
WIRE 336 -16 336 -48
WIRE 464 -16 464 -64
WIRE -96 32 -144 32
WIRE 272 32 240 32
WIRE 336 64 336 48
WIRE 464 64 464 48
WIRE -144 80 -144 32
WIRE 272 112 272 32
WIRE 816 112 816 -384
WIRE 816 112 272 112
FLAG 928 -272 0
FLAG 1248 -384 0
FLAG 1440 -416 0
FLAG -576 -416 0
FLAG -160 -384 0
FLAG 512 -512 0
FLAG -144 80 0
FLAG 336 64 0
FLAG 336 -80 0
FLAG 464 64 0
SYMBOL res -320 -560 R90
WINDOW 0 0 56 VBottom 2
WINDOW 3 32 56 VTop 2
SYMATTR InstName R1
SYMATTR Value 0.1
SYMBOL diode 672 -528 R270
WINDOW 0 32 32 VTop 2
WINDOW 3 0 32 VBottom 2
SYMATTR InstName D1
SYMATTR Value RFN5TF6S
SYMBOL res 912 -528 R0
SYMATTR InstName R2
SYMATTR Value 680k
SYMBOL res 912 -384 R0
SYMATTR InstName R3
SYMATTR Value 4.7k
SYMBOL cap 1232 -496 R0
WINDOW 3 28 85 Left 2
WINDOW 39 27 57 Left 2
SYMATTR Value 680n
SYMATTR SpiceLine IC=180
SYMATTR InstName C1
SYMBOL current 1440 -512 R0
WINDOW 123 0 0 Left 0
WINDOW 39 0 0 Left 0
SYMATTR InstName I1
SYMATTR Value 40m
SYMBOL voltage -576 -528 R0
WINDOW 123 0 0 Left 0
WINDOW 39 0 0 Left 0
SYMATTR InstName V1
SYMATTR Value 12
SYMBOL cap -176 -496 R0
WINDOW 3 24 88 Left 2
WINDOW 39 22 59 Left 2
SYMATTR Value 8µ
SYMATTR SpiceLine IC=24
SYMATTR InstName C2
SYMBOL res 64 -528 R0
SYMATTR InstName R4
SYMATTR Value 4.7k
SYMBOL cap -32 -512 R0
SYMATTR InstName C3
SYMATTR Value 100n
SYMBOL diode 224 -400 R90
WINDOW 0 0 32 VBottom 2
WINDOW 3 32 32 VTop 2
SYMATTR InstName D2
SYMATTR Value 1N4148
SYMBOL res 688 -656 R90
WINDOW 0 0 56 VBottom 2
WINDOW 3 32 56 VTop 2
SYMATTR InstName R5
SYMATTR Value 10k
SYMBOL cap 768 -656 R90
WINDOW 0 0 32 VBottom 2
WINDOW 3 32 32 VTop 2
SYMATTR InstName C4
SYMATTR Value 220p
SYMBOL mc34063 144 -112 R0
SYMATTR InstName U1
SYMBOL cap 320 -16 R0
SYMATTR InstName C5
SYMATTR Value 480p
SYMBOL res 448 -160 R0
SYMATTR InstName R6
SYMATTR Value 1k
SYMBOL cap 448 -16 R0
SYMATTR InstName C6
SYMATTR Value 100n
SYMBOL cap 1024 -496 R0
WINDOW 3 27 83 Left 2
WINDOW 39 25 53 Left 2
SYMATTR Value 220p
SYMATTR SpiceLine IC=180
SYMATTR InstName C7
SYMBOL Contrib\\Wurth\\PowerMagnetics\\Transformer\\DC-DC\\WE-FB\\750311889 336 -544 R0
SYMATTR InstName T2
TEXT -688 328 Left 2 !.tran 0 2m 1u 100n uic
TEXT -688 256 Left 2 !.inc MC34063.lib
TEXT -688 280 Left 2 !.options Gmin=1e-9  method=Gear
