Version 4
SHEET 1 1992 680
WIRE 816 -640 800 -640
WIRE 928 -640 896 -640
WIRE 1056 -640 992 -640
WIRE -848 -544 -1024 -544
WIRE -672 -544 -768 -544
WIRE -512 -544 -672 -544
WIRE -352 -544 -512 -544
WIRE -304 -544 -352 -544
WIRE -192 -544 -224 -544
WIRE 176 -544 -192 -544
WIRE 480 -544 176 -544
WIRE 736 -544 560 -544
WIRE 800 -544 800 -640
WIRE 800 -544 736 -544
WIRE 896 -544 800 -544
WIRE 1056 -544 1056 -640
WIRE 1056 -544 960 -544
WIRE 1120 -544 1056 -544
WIRE 1440 -544 1120 -544
WIRE 1632 -544 1440 -544
WIRE -1024 -512 -1024 -544
WIRE 176 -512 176 -544
WIRE 1120 -512 1120 -544
WIRE 1632 -512 1632 -544
WIRE -672 -496 -672 -544
WIRE -512 -496 -512 -544
WIRE 1440 -496 1440 -544
WIRE -1024 -416 -1024 -432
WIRE 176 -416 176 -448
WIRE 1632 -416 1632 -432
WIRE -672 -384 -672 -432
WIRE -512 -384 -512 -432
WIRE 1120 -384 1120 -432
WIRE 1120 -384 1008 -384
WIRE 1440 -384 1440 -432
WIRE 1120 -368 1120 -384
WIRE 736 -304 736 -544
WIRE 848 -304 736 -304
WIRE -192 -272 -192 -544
WIRE -144 -272 -192 -272
WIRE 288 -272 -144 -272
WIRE 1120 -272 1120 -288
WIRE -144 -208 -144 -272
WIRE -96 -208 -144 -208
WIRE 288 -208 288 -272
WIRE 288 -208 240 -208
WIRE 848 -208 848 -304
WIRE -192 -128 -192 -272
WIRE -96 -128 -192 -128
WIRE 448 -128 240 -128
WIRE 480 -128 448 -128
WIRE 576 -128 544 -128
WIRE 704 -128 656 -128
WIRE 800 -128 704 -128
WIRE 704 -96 704 -128
WIRE -352 -48 -352 -544
WIRE -96 -48 -352 -48
WIRE 336 -48 240 -48
WIRE 448 -48 448 -128
WIRE 640 -48 448 -48
WIRE 448 -32 448 -48
WIRE 336 -16 336 -48
WIRE -96 32 -144 32
WIRE 272 32 240 32
WIRE 336 64 336 48
WIRE 448 64 448 48
WIRE 704 64 704 0
WIRE 848 64 848 -112
WIRE -144 80 -144 32
WIRE 272 112 272 32
WIRE 1008 112 1008 -384
WIRE 1008 112 272 112
FLAG 1120 -272 0
FLAG 1440 -384 0
FLAG 1632 -416 0
FLAG -1024 -416 0
FLAG -672 -384 0
FLAG -144 80 0
FLAG 336 64 0
FLAG 848 64 0
FLAG 448 64 0
FLAG 704 64 0
FLAG -512 -384 0
FLAG 176 -416 0
SYMBOL res -208 -560 R90
WINDOW 0 0 56 VBottom 2
WINDOW 3 32 56 VTop 2
SYMATTR InstName R1
SYMATTR Value 0.075
SYMBOL diode 896 -528 R270
WINDOW 0 32 32 VTop 2
WINDOW 3 0 32 VBottom 2
SYMATTR InstName D1
SYMATTR Value RF1501NS3S
SYMBOL res 1104 -528 R0
SYMATTR InstName R2
SYMATTR Value 680k
SYMBOL res 1104 -384 R0
SYMATTR InstName R3
SYMATTR Value 4.7k
SYMBOL cap 1424 -496 R0
WINDOW 3 28 85 Left 2
WINDOW 39 27 57 Left 2
SYMATTR Value 400n
SYMATTR InstName C1
SYMBOL current 1632 -512 R0
WINDOW 123 0 0 Left 0
WINDOW 39 0 0 Left 0
SYMATTR InstName I1
SYMATTR Value PULSE(10m 40m 5m 0 0 5m)
SYMBOL voltage -1024 -528 R0
WINDOW 123 0 0 Left 0
WINDOW 39 0 0 Left 0
SYMATTR InstName V1
SYMATTR Value 14
SYMBOL cap -688 -496 R0
WINDOW 3 33 53 Left 2
WINDOW 39 32 74 Left 2
WINDOW 40 31 97 Left 2
SYMATTR Value 33µ
SYMATTR SpiceLine Rser=45m
SYMATTR SpiceLine2 IC=12
SYMATTR InstName C2
SYMBOL res 912 -656 R90
WINDOW 0 0 56 VBottom 2
WINDOW 3 32 56 VTop 2
SYMATTR InstName R5
SYMATTR Value 4.7k
SYMBOL cap 992 -656 R90
WINDOW 0 0 32 VBottom 2
WINDOW 3 32 32 VTop 2
SYMATTR InstName C4
SYMATTR Value 1n
SYMBOL mc34063 144 -112 R0
SYMATTR InstName U1
SYMBOL cap 320 -16 R0
SYMATTR InstName C5
SYMATTR Value 480p
SYMBOL ind 464 -528 R270
WINDOW 0 32 56 VTop 2
WINDOW 3 5 56 VBottom 2
WINDOW 39 -48 56 VTop 2
SYMATTR InstName L1
SYMATTR Value 82µ
SYMATTR SpiceLine Ipk=4 Rser=0.14
SYMBOL nmos 800 -208 R0
SYMATTR InstName M1
SYMATTR Value Si4490DY
SYMBOL pnp 640 0 M180
SYMATTR InstName Q1
SYMATTR Value 2N3906
SYMBOL res 432 -48 R0
SYMATTR InstName R4
SYMATTR Value 4.7k
SYMBOL res 672 -144 R90
WINDOW 0 0 56 VBottom 2
WINDOW 3 32 56 VTop 2
SYMATTR InstName R6
SYMATTR Value 10
SYMBOL diode 480 -112 R270
WINDOW 0 32 32 VTop 2
WINDOW 3 0 32 VBottom 2
SYMATTR InstName D2
SYMATTR Value 1N4148
SYMBOL cap -528 -496 R0
WINDOW 3 33 53 Left 2
WINDOW 39 32 74 Left 2
WINDOW 40 31 97 Left 2
SYMATTR Value 33µ
SYMATTR SpiceLine Rser=45m
SYMATTR SpiceLine2 IC=12
SYMATTR InstName C3
SYMBOL res -752 -560 R90
WINDOW 0 0 56 VBottom 2
WINDOW 3 32 56 VTop 2
SYMATTR InstName R7
SYMATTR Value 2.66
SYMBOL cap 160 -512 R0
SYMATTR InstName C6
SYMATTR Value 200n
TEXT -688 328 Left 2 !.tran 0 10m 0 100n uic
TEXT -688 256 Left 2 !.inc MC34063.lib
TEXT -688 280 Left 2 !.options Gmin=1e-9  method=Gear
